@<TRIPOS>MOLECULE
PDB
   26    25     1     0     0
SMALL
bcc


@<TRIPOS>ATOM
      1 F1          -1.0540     1.9480    -0.2010 f          1 PDB      -0.178800
      2 F2           0.5430     1.2580    -1.5030 f          1 PDB      -0.178800
      3 F3           1.2220     1.6490     1.0780 f          1 PDB      -0.176800
      4 F4          -0.3330     0.2930     1.7580 f          1 PDB      -0.176800
      5 F5          -1.8210     0.1670    -2.1650 f          1 PDB      -0.179300
      6 F6          -0.4530    -1.3200    -1.3550 f          1 PDB      -0.179300
      7 F7           2.0670    -0.7620     1.9160 f          1 PDB      -0.183800
      8 F8           0.8060    -1.7940     0.4870 f          1 PDB      -0.183800
      9 F9          -2.9830    -1.7150    -0.6820 f          1 PDB      -0.177800
     10 F10         -1.6930    -1.3050     1.0210 f          1 PDB      -0.177800
     11 F11          2.1050    -0.6120    -1.6010 f          1 PDB      -0.181300
     12 F12          3.3420    -1.7550    -0.2370 f          1 PDB      -0.181300
     13 F13         -3.9680     0.8420    -0.5960 f          1 PDB      -0.201300
     14 F14         -2.6830     1.3010     1.1090 f          1 PDB      -0.201300
     15 F15         -4.1730    -0.2740     1.2670 f          1 PDB      -0.201300
     16 O1           4.5700     0.3290     0.6740 oh         1 PDB      -0.564100
     17 O2           3.3670     1.6770    -0.7040 o          1 PDB      -0.473000
     18 C1          -0.2910     0.8600    -0.5110 c3         1 PDB       0.354600
     19 C2           0.5310     0.5260     0.7270 c3         1 PDB       0.355600
     20 C3          -1.2140    -0.2390    -1.0210 c3         1 PDB       0.351600
     21 C4           1.5060    -0.6430     0.6780 c3         1 PDB       0.348600
     22 C5          -2.2850    -0.7250    -0.0560 c3         1 PDB       0.349600
     23 C6           2.6300    -0.5970    -0.3480 c3         1 PDB       0.361600
     24 C7          -3.2790     0.3000     0.4300 c3         1 PDB       0.610900
     25 C8           3.5390     0.5910    -0.1670 c          1 PDB       0.597100
     26 H1           5.1530     1.1080     0.7930 ho         1 PDB       0.465000
@<TRIPOS>BOND
     1     1    18 1   
     2     2    18 1   
     3     3    19 1   
     4     4    19 1   
     5     5    20 1   
     6     6    20 1   
     7     7    21 1   
     8     8    21 1   
     9     9    22 1   
    10    10    22 1   
    11    11    23 1   
    12    12    23 1   
    13    13    24 1   
    14    14    24 1   
    15    15    24 1   
    16    16    25 1   
    17    16    26 1   
    18    17    25 2   
    19    18    19 1   
    20    18    20 1   
    21    19    21 1   
    22    20    22 1   
    23    21    23 1   
    24    22    24 1   
    25    23    25 1   
@<TRIPOS>SUBSTRUCTURE
     1 PDB         1 TEMP              0 ****  ****    0 ROOT
