MODEL 1
REMARK VINA RESULT:    -0.000      0.000      0.000
REMARK INTER + INTRA:          -0.301
REMARK INTER:                   0.000
REMARK INTRA:                  -0.301
REMARK UNBOUND:                -0.301
REMARK  Name = CT1001702674
REMARK  8 active torsions:
REMARK  status: ('A' for Active; 'I' for Inactive)
REMARK    1  A    between atoms: O_2  and  C_3
REMARK    2  A    between atoms: C_3  and  C_25
REMARK    3  A    between atoms: C_20  and  C_21
REMARK    4  A    between atoms: C_20  and  C_22
REMARK    5  A    between atoms: C_21  and  C_23
REMARK    6  A    between atoms: C_22  and  C_24
REMARK    7  A    between atoms: C_23  and  C_25
REMARK    8  A    between atoms: C_24  and  C_26
REMARK                            x       y       z     vdW  Elec       q    Type
REMARK                         _______ _______ _______ _____ _____    ______ ____
ROOT
ATOM      1  F   UNL     1      42.871  77.503 131.452  0.00  0.00    +0.000 F 
ATOM      2  F   UNL     1      41.827  79.529 131.304  0.00  0.00    +0.000 F 
ATOM      3  C   UNL     1      42.781  78.690 130.718  0.00  0.00    +0.000 C 
ENDROOT
BRANCH   3   6
ATOM      4  F   UNL     1      45.155  78.439 130.554  0.00  0.00    +0.000 F 
ATOM      5  F   UNL     1      44.190  80.302 129.651  0.00  0.00    +0.000 F 
ATOM      6  C   UNL     1      44.141  79.390 130.711  0.00  0.00    +0.000 C 
BRANCH   6   9
ATOM      7  F   UNL     1      43.625  81.337 132.003  0.00  0.00    +0.000 F 
ATOM      8  F   UNL     1      43.873  79.341 133.088  0.00  0.00    +0.000 F 
ATOM      9  C   UNL     1      44.339  80.134 132.033  0.00  0.00    +0.000 C 
BRANCH   9  12
ATOM     10  F   UNL     1      46.408  80.758 131.005  0.00  0.00    +0.000 F 
ATOM     11  F   UNL     1      46.458  79.297 132.762  0.00  0.00    +0.000 F 
ATOM     12  C   UNL     1      45.827  80.428 132.235  0.00  0.00    +0.000 C 
BRANCH  12  14
ATOM     13  O   UNL     1      45.806  81.416 134.374  0.00  0.00    +0.000 OA
ATOM     14  C   UNL     1      45.984  81.583 133.191  0.00  0.00    +0.000 C 
BRANCH  14  15
ATOM     15  O   UNL     1      46.323  82.796 132.727  0.00  0.00    +0.000 OA
ATOM     16  H   UNL     1      47.224  83.099 132.906  0.00  0.00    +0.000 HD
ENDBRANCH  14  15
ENDBRANCH  12  14
ENDBRANCH   9  12
ENDBRANCH   6   9
ENDBRANCH   3   6
BRANCH   3  19
ATOM     17  F   UNL     1      41.851  79.523 128.677  0.00  0.00    +0.000 F 
ATOM     18  F   UNL     1      43.478  77.922 128.562  0.00  0.00    +0.000 F 
ATOM     19  C   UNL     1      42.364  78.369 129.280  0.00  0.00    +0.000 C 
BRANCH  19  22
ATOM     20  F   UNL     1      41.898  76.031 129.467  0.00  0.00    +0.000 F 
ATOM     21  F   UNL     1      40.397  77.515 130.341  0.00  0.00    +0.000 F 
ATOM     22  C   UNL     1      41.291  77.279 129.291  0.00  0.00    +0.000 C 
BRANCH  22  26
ATOM     23  F   UNL     1      39.594  78.333 127.976  0.00  0.00    +0.000 F 
ATOM     24  F   UNL     1      39.876  76.074 127.785  0.00  0.00    +0.000 F 
ATOM     25  F   UNL     1      41.436  77.497 126.913  0.00  0.00    +0.000 F 
ATOM     26  C   UNL     1      40.534  77.296 127.963  0.00  0.00    +0.000 C 
ENDBRANCH  22  26
ENDBRANCH  19  22
ENDBRANCH   3  19
TORSDOF 8
ENDMDL
MODEL 2
REMARK VINA RESULT:    -0.000     51.085     54.230
REMARK INTER + INTRA:          -0.301
REMARK INTER:                   0.000
REMARK INTRA:                  -0.301
REMARK UNBOUND:                -0.301
REMARK  Name = CT1001702674
REMARK  8 active torsions:
REMARK  status: ('A' for Active; 'I' for Inactive)
REMARK    1  A    between atoms: O_2  and  C_3
REMARK    2  A    between atoms: C_3  and  C_25
REMARK    3  A    between atoms: C_20  and  C_21
REMARK    4  A    between atoms: C_20  and  C_22
REMARK    5  A    between atoms: C_21  and  C_23
REMARK    6  A    between atoms: C_22  and  C_24
REMARK    7  A    between atoms: C_23  and  C_25
REMARK    8  A    between atoms: C_24  and  C_26
REMARK                            x       y       z     vdW  Elec       q    Type
REMARK                         _______ _______ _______ _____ _____    ______ ____
ROOT
ATOM      1  F   UNL     1     -10.542  81.254 126.726  0.00  0.00    +0.000 F 
ATOM      2  F   UNL     1     -10.391  78.978 126.598  0.00  0.00    +0.000 F 
ATOM      3  C   UNL     1     -10.130  80.180 125.930  0.00  0.00    +0.000 C 
ENDROOT
BRANCH   3   6
ATOM      4  F   UNL     1     -11.009  81.524 124.156  0.00  0.00    +0.000 F 
ATOM      5  F   UNL     1     -10.207  79.444 123.655  0.00  0.00    +0.000 F 
ATOM      6  C   UNL     1     -10.897  80.204 124.606  0.00  0.00    +0.000 C 
BRANCH   6   9
ATOM      7  F   UNL     1     -12.211  78.218 124.838  0.00  0.00    +0.000 F 
ATOM      8  F   UNL     1     -12.816  80.073 126.028  0.00  0.00    +0.000 F 
ATOM      9  C   UNL     1     -12.293  79.615 124.814  0.00  0.00    +0.000 C 
BRANCH   9  12
ATOM     10  F   UNL     1     -12.482  80.061 122.470  0.00  0.00    +0.000 F 
ATOM     11  F   UNL     1     -13.696  81.336 123.926  0.00  0.00    +0.000 F 
ATOM     12  C   UNL     1     -13.207  80.052 123.667  0.00  0.00    +0.000 C 
BRANCH  12  14
ATOM     13  O   UNL     1     -15.264  79.128 124.350  0.00  0.00    +0.000 OA
ATOM     14  C   UNL     1     -14.360  79.089 123.549  0.00  0.00    +0.000 C 
BRANCH  14  15
ATOM     15  O   UNL     1     -14.383  78.189 122.554  0.00  0.00    +0.000 OA
ATOM     16  H   UNL     1     -14.923  78.402 121.781  0.00  0.00    +0.000 HD
ENDBRANCH  14  15
ENDBRANCH  12  14
ENDBRANCH   9  12
ENDBRANCH   6   9
ENDBRANCH   3   6
BRANCH   3  19
ATOM     17  F   UNL     1      -8.132  79.049 125.258  0.00  0.00    +0.000 F 
ATOM     18  F   UNL     1      -8.414  81.229 124.635  0.00  0.00    +0.000 F 
ATOM     19  C   UNL     1      -8.630  80.295 125.654  0.00  0.00    +0.000 C 
BRANCH  19  22
ATOM     20  F   UNL     1      -8.059  82.133 127.074  0.00  0.00    +0.000 F 
ATOM     21  F   UNL     1      -8.464  80.099 128.033  0.00  0.00    +0.000 F 
ATOM     22  C   UNL     1      -7.910  80.751 126.925  0.00  0.00    +0.000 C 
BRANCH  22  26
ATOM     23  F   UNL     1      -6.240  79.048 127.107  0.00  0.00    +0.000 F 
ATOM     24  F   UNL     1      -5.701  81.176 127.738  0.00  0.00    +0.000 F 
ATOM     25  F   UNL     1      -5.971  80.675 125.526  0.00  0.00    +0.000 F 
ATOM     26  C   UNL     1      -6.424  80.405 126.821  0.00  0.00    +0.000 C 
ENDBRANCH  22  26
ENDBRANCH  19  22
ENDBRANCH   3  19
TORSDOF 8
ENDMDL
MODEL 3
REMARK VINA RESULT:    -0.000     69.386     71.590
REMARK INTER + INTRA:          -0.301
REMARK INTER:                   0.000
REMARK INTRA:                  -0.301
REMARK UNBOUND:                -0.301
REMARK  Name = CT1001702674
REMARK  8 active torsions:
REMARK  status: ('A' for Active; 'I' for Inactive)
REMARK    1  A    between atoms: O_2  and  C_3
REMARK    2  A    between atoms: C_3  and  C_25
REMARK    3  A    between atoms: C_20  and  C_21
REMARK    4  A    between atoms: C_20  and  C_22
REMARK    5  A    between atoms: C_21  and  C_23
REMARK    6  A    between atoms: C_22  and  C_24
REMARK    7  A    between atoms: C_23  and  C_25
REMARK    8  A    between atoms: C_24  and  C_26
REMARK                            x       y       z     vdW  Elec       q    Type
REMARK                         _______ _______ _______ _____ _____    ______ ____
ROOT
ATOM      1  F   UNL     1     -28.067  79.655 134.439  0.00  0.00    +0.000 F 
ATOM      2  F   UNL     1     -29.162  79.165 136.383  0.00  0.00    +0.000 F 
ATOM      3  C   UNL     1     -27.983  78.969 135.655  0.00  0.00    +0.000 C 
ENDROOT
BRANCH   3   6
ATOM      4  F   UNL     1     -26.906  77.303 134.316  0.00  0.00    +0.000 F 
ATOM      5  F   UNL     1     -27.272  76.857 136.527  0.00  0.00    +0.000 F 
ATOM      6  C   UNL     1     -27.793  77.475 135.384  0.00  0.00    +0.000 C 
BRANCH   6   9
ATOM      7  F   UNL     1     -29.873  76.625 136.207  0.00  0.00    +0.000 F 
ATOM      8  F   UNL     1     -29.855  77.706 134.193  0.00  0.00    +0.000 F 
ATOM      9  C   UNL     1     -29.142  76.844 135.034  0.00  0.00    +0.000 C 
BRANCH   9  12
ATOM     10  F   UNL     1     -27.816  74.856 134.896  0.00  0.00    +0.000 F 
ATOM     11  F   UNL     1     -28.654  75.746 132.965  0.00  0.00    +0.000 F 
ATOM     12  C   UNL     1     -28.911  75.510 134.320  0.00  0.00    +0.000 C 
BRANCH  12  14
ATOM     13  O   UNL     1     -31.122  74.889 133.795  0.00  0.00    +0.000 OA
ATOM     14  C   UNL     1     -30.140  74.649 134.456  0.00  0.00    +0.000 C 
BRANCH  14  15
ATOM     15  O   UNL     1     -30.143  73.614 135.311  0.00  0.00    +0.000 OA
ATOM     16  H   UNL     1     -30.676  72.845 135.069  0.00  0.00    +0.000 HD
ENDBRANCH  14  15
ENDBRANCH  12  14
ENDBRANCH   9  12
ENDBRANCH   6   9
ENDBRANCH   3   6
BRANCH   3  19
ATOM     17  F   UNL     1     -26.953  79.157 137.806  0.00  0.00    +0.000 F 
ATOM     18  F   UNL     1     -25.612  78.929 135.970  0.00  0.00    +0.000 F 
ATOM     19  C   UNL     1     -26.793  79.497 136.458  0.00  0.00    +0.000 C 
BRANCH  19  22
ATOM     20  F   UNL     1     -26.130  81.350 135.098  0.00  0.00    +0.000 F 
ATOM     21  F   UNL     1     -28.013  81.554 136.375  0.00  0.00    +0.000 F 
ATOM     22  C   UNL     1     -26.721  81.020 136.321  0.00  0.00    +0.000 C 
BRANCH  22  26
ATOM     23  F   UNL     1     -26.660  81.655 138.626  0.00  0.00    +0.000 F 
ATOM     24  F   UNL     1     -25.453  82.883 137.125  0.00  0.00    +0.000 F 
ATOM     25  F   UNL     1     -24.772  80.776 137.688  0.00  0.00    +0.000 F 
ATOM     26  C   UNL     1     -25.884  81.595 137.465  0.00  0.00    +0.000 C 
ENDBRANCH  22  26
ENDBRANCH  19  22
ENDBRANCH   3  19
TORSDOF 8
ENDMDL
MODEL 4
REMARK VINA RESULT:    -0.000     27.071     28.639
REMARK INTER + INTRA:          -0.301
REMARK INTER:                   0.000
REMARK INTRA:                  -0.301
REMARK UNBOUND:                -0.301
REMARK  Name = CT1001702674
REMARK  8 active torsions:
REMARK  status: ('A' for Active; 'I' for Inactive)
REMARK    1  A    between atoms: O_2  and  C_3
REMARK    2  A    between atoms: C_3  and  C_25
REMARK    3  A    between atoms: C_20  and  C_21
REMARK    4  A    between atoms: C_20  and  C_22
REMARK    5  A    between atoms: C_21  and  C_23
REMARK    6  A    between atoms: C_22  and  C_24
REMARK    7  A    between atoms: C_23  and  C_25
REMARK    8  A    between atoms: C_24  and  C_26
REMARK                            x       y       z     vdW  Elec       q    Type
REMARK                         _______ _______ _______ _____ _____    ______ ____
ROOT
ATOM      1  F   UNL     1      38.394  84.075 156.290  0.00  0.00    +0.000 F 
ATOM      2  F   UNL     1      40.307  84.034 157.537  0.00  0.00    +0.000 F 
ATOM      3  C   UNL     1      38.909  84.064 157.590  0.00  0.00    +0.000 C 
ENDROOT
BRANCH   3   6
ATOM      4  F   UNL     1      37.118  85.594 158.011  0.00  0.00    +0.000 F 
ATOM      5  F   UNL     1      38.571  85.121 159.710  0.00  0.00    +0.000 F 
ATOM      6  C   UNL     1      38.453  85.323 158.330  0.00  0.00    +0.000 C 
BRANCH   6   9
ATOM      7  F   UNL     1      40.550  86.446 158.591  0.00  0.00    +0.000 F 
ATOM      8  F   UNL     1      39.558  86.450 156.532  0.00  0.00    +0.000 F 
ATOM      9  C   UNL     1      39.328  86.506 157.911  0.00  0.00    +0.000 C 
BRANCH   9  12
ATOM     10  F   UNL     1      37.944  87.673 159.476  0.00  0.00    +0.000 F 
ATOM     11  F   UNL     1      37.694  88.123 157.250  0.00  0.00    +0.000 F 
ATOM     12  C   UNL     1      38.615  87.815 158.256  0.00  0.00    +0.000 C 
BRANCH  12  14
ATOM     13  O   UNL     1      40.119  89.397 157.368  0.00  0.00    +0.000 OA
ATOM     14  C   UNL     1      39.629  88.925 158.367  0.00  0.00    +0.000 C 
BRANCH  14  15
ATOM     15  O   UNL     1      39.988  89.388 159.574  0.00  0.00    +0.000 OA
ATOM     16  H   UNL     1      40.151  88.733 160.266  0.00  0.00    +0.000 HD
ENDBRANCH  14  15
ENDBRANCH  12  14
ENDBRANCH   9  12
ENDBRANCH   6   9
ENDBRANCH   3   6
BRANCH   3  19
ATOM     17  F   UNL     1      39.226  82.567 159.430  0.00  0.00    +0.000 F 
ATOM     18  F   UNL     1      37.092  83.050 158.771  0.00  0.00    +0.000 F 
ATOM     19  C   UNL     1      38.400  82.825 158.330  0.00  0.00    +0.000 C 
BRANCH  19  22
ATOM     20  F   UNL     1      37.300  81.667 156.549  0.00  0.00    +0.000 F 
ATOM     21  F   UNL     1      39.584  81.658 156.608  0.00  0.00    +0.000 F 
ATOM     22  C   UNL     1      38.420  81.622 157.385  0.00  0.00    +0.000 C 
BRANCH  22  26
ATOM     23  F   UNL     1      39.676  80.065 158.697  0.00  0.00    +0.000 F 
ATOM     24  F   UNL     1      37.982  79.270 157.388  0.00  0.00    +0.000 F 
ATOM     25  F   UNL     1      37.503  80.471 159.271  0.00  0.00    +0.000 F 
ATOM     26  C   UNL     1      38.395  80.330 158.203  0.00  0.00    +0.000 C 
ENDBRANCH  22  26
ENDBRANCH  19  22
ENDBRANCH   3  19
TORSDOF 8
ENDMDL
MODEL 5
REMARK VINA RESULT:     0.000     43.609     44.940
REMARK INTER + INTRA:          -0.301
REMARK INTER:                   0.000
REMARK INTRA:                  -0.301
REMARK UNBOUND:                -0.301
REMARK  Name = CT1001702674
REMARK  8 active torsions:
REMARK  status: ('A' for Active; 'I' for Inactive)
REMARK    1  A    between atoms: O_2  and  C_3
REMARK    2  A    between atoms: C_3  and  C_25
REMARK    3  A    between atoms: C_20  and  C_21
REMARK    4  A    between atoms: C_20  and  C_22
REMARK    5  A    between atoms: C_21  and  C_23
REMARK    6  A    between atoms: C_22  and  C_24
REMARK    7  A    between atoms: C_23  and  C_25
REMARK    8  A    between atoms: C_24  and  C_26
REMARK                            x       y       z     vdW  Elec       q    Type
REMARK                         _______ _______ _______ _____ _____    ______ ____
ROOT
ATOM      1  F   UNL     1       9.485  95.632 156.255  0.00  0.00    +0.000 F 
ATOM      2  F   UNL     1      10.394  96.632 158.098  0.00  0.00    +0.000 F 
ATOM      3  C   UNL     1      10.649  96.190 156.795  0.00  0.00    +0.000 C 
ENDROOT
BRANCH   3   6
ATOM      4  F   UNL     1      11.712  94.381 155.643  0.00  0.00    +0.000 F 
ATOM      5  F   UNL     1      13.000  95.764 156.927  0.00  0.00    +0.000 F 
ATOM      6  C   UNL     1      11.755  95.133 156.822  0.00  0.00    +0.000 C 
BRANCH   6   9
ATOM      7  F   UNL     1      12.009  94.843 159.183  0.00  0.00    +0.000 F 
ATOM      8  F   UNL     1      10.187  93.919 158.159  0.00  0.00    +0.000 F 
ATOM      9  C   UNL     1      11.549  94.209 158.023  0.00  0.00    +0.000 C 
BRANCH   9  12
ATOM     10  F   UNL     1      13.548  93.196 157.184  0.00  0.00    +0.000 F 
ATOM     11  F   UNL     1      11.581  92.048 157.000  0.00  0.00    +0.000 F 
ATOM     12  C   UNL     1      12.328  92.910 157.808  0.00  0.00    +0.000 C 
BRANCH  12  14
ATOM     13  O   UNL     1      11.693  91.679 159.714  0.00  0.00    +0.000 OA
ATOM     14  C   UNL     1      12.587  92.253 159.139  0.00  0.00    +0.000 C 
BRANCH  14  15
ATOM     15  O   UNL     1      13.812  92.306 159.687  0.00  0.00    +0.000 OA
ATOM     16  H   UNL     1      14.435  92.941 159.309  0.00  0.00    +0.000 HD
ENDBRANCH  14  15
ENDBRANCH  12  14
ENDBRANCH   9  12
ENDBRANCH   6   9
ENDBRANCH   3   6
BRANCH   3  19
ATOM     17  F   UNL     1      11.958  98.189 156.673  0.00  0.00    +0.000 F 
ATOM     18  F   UNL     1      11.760  96.899 154.798  0.00  0.00    +0.000 F 
ATOM     19  C   UNL     1      11.095  97.373 155.933  0.00  0.00    +0.000 C 
BRANCH  19  22
ATOM     20  F   UNL     1       9.242  97.547 154.430  0.00  0.00    +0.000 F 
ATOM     21  F   UNL     1       8.975  98.277 156.578  0.00  0.00    +0.000 F 
ATOM     22  C   UNL     1       9.870  98.183 155.505  0.00  0.00    +0.000 C 
BRANCH  22  26
ATOM     23  F   UNL     1      10.527 100.368 156.223  0.00  0.00    +0.000 F 
ATOM     24  F   UNL     1       9.305 100.173 154.302  0.00  0.00    +0.000 F 
ATOM     25  F   UNL     1      11.489  99.503 154.340  0.00  0.00    +0.000 F 
ATOM     26  C   UNL     1      10.308  99.587 155.084  0.00  0.00    +0.000 C 
ENDBRANCH  22  26
ENDBRANCH  19  22
ENDBRANCH   3  19
TORSDOF 8
ENDMDL
MODEL 6
REMARK VINA RESULT:     0.000     26.972     28.421
REMARK INTER + INTRA:          -0.301
REMARK INTER:                   0.000
REMARK INTRA:                  -0.301
REMARK UNBOUND:                -0.301
REMARK  Name = CT1001702674
REMARK  8 active torsions:
REMARK  status: ('A' for Active; 'I' for Inactive)
REMARK    1  A    between atoms: O_2  and  C_3
REMARK    2  A    between atoms: C_3  and  C_25
REMARK    3  A    between atoms: C_20  and  C_21
REMARK    4  A    between atoms: C_20  and  C_22
REMARK    5  A    between atoms: C_21  and  C_23
REMARK    6  A    between atoms: C_22  and  C_24
REMARK    7  A    between atoms: C_23  and  C_25
REMARK    8  A    between atoms: C_24  and  C_26
REMARK                            x       y       z     vdW  Elec       q    Type
REMARK                         _______ _______ _______ _____ _____    ______ ____
ROOT
ATOM      1  F   UNL     1      20.726  80.705 149.648  0.00  0.00    +0.000 F 
ATOM      2  F   UNL     1      19.993  79.840 147.664  0.00  0.00    +0.000 F 
ATOM      3  C   UNL     1      20.948  79.720 148.681  0.00  0.00    +0.000 C 
ENDROOT
BRANCH   3   6
ATOM      4  F   UNL     1      23.250  80.215 149.108  0.00  0.00    +0.000 F 
ATOM      5  F   UNL     1      22.745  78.698 147.476  0.00  0.00    +0.000 F 
ATOM      6  C   UNL     1      22.348  79.892 148.089  0.00  0.00    +0.000 C 
BRANCH   6   9
ATOM      7  F   UNL     1      21.789  80.533 145.852  0.00  0.00    +0.000 F 
ATOM      8  F   UNL     1      21.544  82.073 147.523  0.00  0.00    +0.000 F 
ATOM      9  C   UNL     1      22.328  81.015 147.050  0.00  0.00    +0.000 C 
BRANCH   9  12
ATOM     10  F   UNL     1      24.636  80.421 146.830  0.00  0.00    +0.000 F 
ATOM     11  F   UNL     1      24.111  82.420 147.805  0.00  0.00    +0.000 F 
ATOM     12  C   UNL     1      23.756  81.509 146.806  0.00  0.00    +0.000 C 
BRANCH  12  14
ATOM     13  O   UNL     1      23.369  83.292 145.315  0.00  0.00    +0.000 OA
ATOM     14  C   UNL     1      23.830  82.184 145.461  0.00  0.00    +0.000 C 
BRANCH  14  15
ATOM     15  O   UNL     1      24.408  81.556 144.425  0.00  0.00    +0.000 OA
ATOM     16  H   UNL     1      24.794  82.111 143.734  0.00  0.00    +0.000 HD
ENDBRANCH  14  15
ENDBRANCH  12  14
ENDBRANCH   9  12
ENDBRANCH   6   9
ENDBRANCH   3   6
BRANCH   3  19
ATOM     17  F   UNL     1      20.614  77.376 148.333  0.00  0.00    +0.000 F 
ATOM     18  F   UNL     1      22.018  78.041 150.008  0.00  0.00    +0.000 F 
ATOM     19  C   UNL     1      20.834  78.337 149.326  0.00  0.00    +0.000 C 
BRANCH  19  22
ATOM     20  F   UNL     1      20.057  78.933 151.509  0.00  0.00    +0.000 F 
ATOM     21  F   UNL     1      18.587  79.038 149.763  0.00  0.00    +0.000 F 
ATOM     22  C   UNL     1      19.662  78.329 150.311  0.00  0.00    +0.000 C 
BRANCH  22  26
ATOM     23  F   UNL     1      18.450  76.424 149.521  0.00  0.00    +0.000 F 
ATOM     24  F   UNL     1      18.491  76.835 151.768  0.00  0.00    +0.000 F 
ATOM     25  F   UNL     1      20.370  76.078 150.710  0.00  0.00    +0.000 F 
ATOM     26  C   UNL     1      19.235  76.885 150.583  0.00  0.00    +0.000 C 
ENDBRANCH  22  26
ENDBRANCH  19  22
ENDBRANCH   3  19
TORSDOF 8
ENDMDL
MODEL 7
REMARK VINA RESULT:     0.000     13.395     17.061
REMARK INTER + INTRA:          -0.301
REMARK INTER:                   0.000
REMARK INTRA:                  -0.301
REMARK UNBOUND:                -0.301
REMARK  Name = CT1001702674
REMARK  8 active torsions:
REMARK  status: ('A' for Active; 'I' for Inactive)
REMARK    1  A    between atoms: O_2  and  C_3
REMARK    2  A    between atoms: C_3  and  C_25
REMARK    3  A    between atoms: C_20  and  C_21
REMARK    4  A    between atoms: C_20  and  C_22
REMARK    5  A    between atoms: C_21  and  C_23
REMARK    6  A    between atoms: C_22  and  C_24
REMARK    7  A    between atoms: C_23  and  C_25
REMARK    8  A    between atoms: C_24  and  C_26
REMARK                            x       y       z     vdW  Elec       q    Type
REMARK                         _______ _______ _______ _____ _____    ______ ____
ROOT
ATOM      1  F   UNL     1      51.189  81.714 143.273  0.00  0.00    +0.000 F 
ATOM      2  F   UNL     1      50.428  82.361 145.328  0.00  0.00    +0.000 F 
ATOM      3  C   UNL     1      50.849  81.273 144.556  0.00  0.00    +0.000 C 
ENDROOT
BRANCH   3   6
ATOM      4  F   UNL     1      49.944  79.403 143.368  0.00  0.00    +0.000 F 
ATOM      5  F   UNL     1      49.675  79.488 145.635  0.00  0.00    +0.000 F 
ATOM      6  C   UNL     1      49.718  80.247 144.460  0.00  0.00    +0.000 C 
BRANCH   6   9
ATOM      7  F   UNL     1      47.947  81.467 145.509  0.00  0.00    +0.000 F 
ATOM      8  F   UNL     1      48.554  82.038 143.381  0.00  0.00    +0.000 F 
ATOM      9  C   UNL     1      48.385  80.974 144.275  0.00  0.00    +0.000 C 
BRANCH   9  12
ATOM     10  F   UNL     1      47.527  78.741 144.299  0.00  0.00    +0.000 F 
ATOM     11  F   UNL     1      47.498  79.900 142.330  0.00  0.00    +0.000 F 
ATOM     12  C   UNL     1      47.345  80.000 143.717  0.00  0.00    +0.000 C 
BRANCH  12  14
ATOM     13  O   UNL     1      45.499  81.432 143.412  0.00  0.00    +0.000 OA
ATOM     14  C   UNL     1      45.962  80.506 144.034  0.00  0.00    +0.000 C 
BRANCH  14  15
ATOM     15  O   UNL     1      45.243  79.926 145.008  0.00  0.00    +0.000 OA
ATOM     16  H   UNL     1      45.733  79.542 145.747  0.00  0.00    +0.000 HD
ENDBRANCH  14  15
ENDBRANCH  12  14
ENDBRANCH   9  12
ENDBRANCH   6   9
ENDBRANCH   3   6
BRANCH   3  19
ATOM     17  F   UNL     1      51.888  80.585 146.599  0.00  0.00    +0.000 F 
ATOM     18  F   UNL     1      52.226  79.323 144.725  0.00  0.00    +0.000 F 
ATOM     19  C   UNL     1      52.071  80.624 145.212  0.00  0.00    +0.000 C 
BRANCH  19  22
ATOM     20  F   UNL     1      53.760  81.130 143.596  0.00  0.00    +0.000 F 
ATOM     21  F   UNL     1      53.015  82.808 144.955  0.00  0.00    +0.000 F 
ATOM     22  C   UNL     1      53.320  81.444 144.886  0.00  0.00    +0.000 C 
BRANCH  22  26
ATOM     23  F   UNL     1      54.182  81.809 147.087  0.00  0.00    +0.000 F 
ATOM     24  F   UNL     1      55.662  81.506 145.373  0.00  0.00    +0.000 F 
ATOM     25  F   UNL     1      54.432  79.742 146.147  0.00  0.00    +0.000 F 
ATOM     26  C   UNL     1      54.422  81.118 145.895  0.00  0.00    +0.000 C 
ENDBRANCH  22  26
ENDBRANCH  19  22
ENDBRANCH   3  19
TORSDOF 8
ENDMDL
MODEL 8
REMARK VINA RESULT:     0.001     69.280     71.285
REMARK INTER + INTRA:          -0.300
REMARK INTER:                   0.000
REMARK INTRA:                  -0.300
REMARK UNBOUND:                -0.301
REMARK  Name = CT1001702674
REMARK  8 active torsions:
REMARK  status: ('A' for Active; 'I' for Inactive)
REMARK    1  A    between atoms: O_2  and  C_3
REMARK    2  A    between atoms: C_3  and  C_25
REMARK    3  A    between atoms: C_20  and  C_21
REMARK    4  A    between atoms: C_20  and  C_22
REMARK    5  A    between atoms: C_21  and  C_23
REMARK    6  A    between atoms: C_22  and  C_24
REMARK    7  A    between atoms: C_23  and  C_25
REMARK    8  A    between atoms: C_24  and  C_26
REMARK                            x       y       z     vdW  Elec       q    Type
REMARK                         _______ _______ _______ _____ _____    ______ ____
ROOT
ATOM      1  F   UNL     1     -16.415  59.493 165.159  0.00  0.00    +0.000 F 
ATOM      2  F   UNL     1     -16.722  61.663 165.805  0.00  0.00    +0.000 F 
ATOM      3  C   UNL     1     -15.793  60.621 165.705  0.00  0.00    +0.000 C 
ENDROOT
BRANCH   3   6
ATOM      4  F   UNL     1     -14.692  59.001 167.080  0.00  0.00    +0.000 F 
ATOM      5  F   UNL     1     -14.275  61.215 167.456  0.00  0.00    +0.000 F 
ATOM      6  C   UNL     1     -15.254  60.282 167.096  0.00  0.00    +0.000 C 
BRANCH   6   9
ATOM      7  F   UNL     1     -16.670  61.656 168.449  0.00  0.00    +0.000 F 
ATOM      8  F   UNL     1     -17.539  59.742 167.552  0.00  0.00    +0.000 F 
ATOM      9  C   UNL     1     -16.397  60.326 168.111  0.00  0.00    +0.000 C 
BRANCH   9  12
ATOM     10  F   UNL     1     -14.639  59.778 169.639  0.00  0.00    +0.000 F 
ATOM     11  F   UNL     1     -16.207  58.186 169.163  0.00  0.00    +0.000 F 
ATOM     12  C   UNL     1     -15.993  59.553 169.368  0.00  0.00    +0.000 C 
BRANCH  12  14
ATOM     13  O   UNL     1     -17.976  59.675 170.634  0.00  0.00    +0.000 OA
ATOM     14  C   UNL     1     -16.823  60.022 170.535  0.00  0.00    +0.000 C 
BRANCH  14  15
ATOM     15  O   UNL     1     -16.282  60.826 171.464  0.00  0.00    +0.000 OA
ATOM     16  H   UNL     1     -15.794  60.401 172.182  0.00  0.00    +0.000 HD
ENDBRANCH  14  15
ENDBRANCH  12  14
ENDBRANCH   9  12
ENDBRANCH   6   9
ENDBRANCH   3   6
BRANCH   3  19
ATOM     17  F   UNL     1     -14.302  62.383 165.076  0.00  0.00    +0.000 F 
ATOM     18  F   UNL     1     -13.528  60.234 165.038  0.00  0.00    +0.000 F 
ATOM     19  C   UNL     1     -14.637  61.053 164.800  0.00  0.00    +0.000 C 
BRANCH  19  22
ATOM     20  F   UNL     1     -14.966  59.591 162.936  0.00  0.00    +0.000 F 
ATOM     21  F   UNL     1     -16.383  61.364 163.193  0.00  0.00    +0.000 F 
ATOM     22  C   UNL     1     -15.060  60.927 163.335  0.00  0.00    +0.000 C 
BRANCH  22  26
ATOM     23  F   UNL     1     -14.542  63.126 162.548  0.00  0.00    +0.000 F 
ATOM     24  F   UNL     1     -14.228  61.358 161.134  0.00  0.00    +0.000 F 
ATOM     25  F   UNL     1     -12.824  61.664 162.911  0.00  0.00    +0.000 F 
ATOM     26  C   UNL     1     -14.144  61.787 162.464  0.00  0.00    +0.000 C 
ENDBRANCH  22  26
ENDBRANCH  19  22
ENDBRANCH   3  19
TORSDOF 8
ENDMDL
MODEL 9
REMARK VINA RESULT:     0.003     45.244     46.952
REMARK INTER + INTRA:          -0.297
REMARK INTER:                   0.000
REMARK INTRA:                  -0.297
REMARK UNBOUND:                -0.301
REMARK  Name = CT1001702674
REMARK  8 active torsions:
REMARK  status: ('A' for Active; 'I' for Inactive)
REMARK    1  A    between atoms: O_2  and  C_3
REMARK    2  A    between atoms: C_3  and  C_25
REMARK    3  A    between atoms: C_20  and  C_21
REMARK    4  A    between atoms: C_20  and  C_22
REMARK    5  A    between atoms: C_21  and  C_23
REMARK    6  A    between atoms: C_22  and  C_24
REMARK    7  A    between atoms: C_23  and  C_25
REMARK    8  A    between atoms: C_24  and  C_26
REMARK                            x       y       z     vdW  Elec       q    Type
REMARK                         _______ _______ _______ _____ _____    ______ ____
ROOT
ATOM      1  F   UNL     1       0.387  84.863 152.304  0.00  0.00    +0.000 F 
ATOM      2  F   UNL     1       1.772  83.451 151.160  0.00  0.00    +0.000 F 
ATOM      3  C   UNL     1       1.721  84.565 152.005  0.00  0.00    +0.000 C 
ENDROOT
BRANCH   3   6
ATOM      4  F   UNL     1       1.939  86.947 151.920  0.00  0.00    +0.000 F 
ATOM      5  F   UNL     1       3.759  85.666 151.406  0.00  0.00    +0.000 F 
ATOM      6  C   UNL     1       2.367  85.764 151.308  0.00  0.00    +0.000 C 
BRANCH   6   9
ATOM      7  F   UNL     1       2.729  84.845 149.128  0.00  0.00    +0.000 F 
ATOM      8  F   UNL     1       0.605  85.445 149.721  0.00  0.00    +0.000 F 
ATOM      9  C   UNL     1       1.959  85.778 149.833  0.00  0.00    +0.000 C 
BRANCH   9  12
ATOM     10  F   UNL     1       3.364  87.714 149.790  0.00  0.00    +0.000 F 
ATOM     11  F   UNL     1       1.108  87.998 149.574  0.00  0.00    +0.000 F 
ATOM     12  C   UNL     1       2.191  87.174 149.252  0.00  0.00    +0.000 C 
BRANCH  12  14
ATOM     13  O   UNL     1       1.342  86.905 147.071  0.00  0.00    +0.000 OA
ATOM     14  C   UNL     1       2.323  87.079 147.754  0.00  0.00    +0.000 C 
BRANCH  14  15
ATOM     15  O   UNL     1       3.530  87.188 147.178  0.00  0.00    +0.000 OA
ATOM     16  H   UNL     1       3.844  86.430 146.668  0.00  0.00    +0.000 HD
ENDBRANCH  14  15
ENDBRANCH  12  14
ENDBRANCH   9  12
ENDBRANCH   6   9
ENDBRANCH   3   6
BRANCH   3  19
ATOM     17  F   UNL     1       3.646  83.550 152.999  0.00  0.00    +0.000 F 
ATOM     18  F   UNL     1       2.810  85.458 153.939  0.00  0.00    +0.000 F 
ATOM     19  C   UNL     1       2.477  84.259 153.299  0.00  0.00    +0.000 C 
BRANCH  19  22
ATOM     20  F   UNL     1       0.674  84.247 154.871  0.00  0.00    +0.000 F 
ATOM     21  F   UNL     1       0.904  82.463 153.462  0.00  0.00    +0.000 F 
ATOM     22  C   UNL     1       1.593  83.417 154.221  0.00  0.00    +0.000 C 
BRANCH  22  26
ATOM     23  F   UNL     1       3.064  81.587 154.676  0.00  0.00    +0.000 F 
ATOM     24  F   UNL     1       1.671  82.306 156.338  0.00  0.00    +0.000 F 
ATOM     25  F   UNL     1       3.457  83.586 155.711  0.00  0.00    +0.000 F 
ATOM     26  C   UNL     1       2.465  82.709 155.258  0.00  0.00    +0.000 C 
ENDBRANCH  22  26
ENDBRANCH  19  22
ENDBRANCH   3  19
TORSDOF 8
ENDMDL
